IJAU11/CargasBT_SA03_2022124950_IJAU11_--MBS-1--T--.dss
New "Load.BT_1013320_1_M1" bus1="1001013320.1.2.3.4" phases=3 conn=Delta model=2 kv=0.220000000 kw = 0.2392525 pf=0.92 status=variable vmaxpu=1.5 vminpu=0.92 daily="COM1_13_SA"  
New "Load.BT_1013320_1_M2" bus1="1001013320.1.2.3.4" phases=3 conn=Delta model=3 kv=0.220000000 kw = 0.2392525 pf=0.92 status=variable vmaxpu=1.5 vminpu=0.92 daily="COM1_13_SA" 
New "Load.BT_1036595_M1" bus1="1001036595.1.2.4" phases=1 conn=Delta model=2 kv=0.220000000 kw = 1.177777 pf=0.92 status=variable vmaxpu=1.5 vminpu=0.92 daily="RES1_19_SA"  
New "Load.BT_1036595_M2" bus1="1001036595.1.2.4" phases=1 conn=Delta model=3 kv=0.220000000 kw = 1.177777 pf=0.92 status=variable vmaxpu=1.5 vminpu=0.92 daily="RES1_19_SA" 
New "Load.BT_4857615_1_M1" bus1="1004857615.1.2.3.4" phases=3 conn=Delta model=2 kv=0.220000000 kw = 1.3058295 pf=0.92 status=variable vmaxpu=1.5 vminpu=0.92 daily="RES1_13_SA"  
New "Load.BT_4857615_1_M2" bus1="1004857615.1.2.3.4" phases=3 conn=Delta model=3 kv=0.220000000 kw = 1.3058295 pf=0.92 status=variable vmaxpu=1.5 vminpu=0.92 daily="RES1_13_SA" 
New "Load.BT_1024940_1_M1" bus1="1001024940.1.2.3.4" phases=3 conn=Delta model=2 kv=0.220000000 kw = 0.16095 pf=0.92 status=variable vmaxpu=1.5 vminpu=0.92 daily="RES1_2_SA"  
New "Load.BT_1024940_1_M2" bus1="1001024940.1.2.3.4" phases=3 conn=Delta model=3 kv=0.220000000 kw = 0.16095 pf=0.92 status=variable vmaxpu=1.5 vminpu=0.92 daily="RES1_2_SA" 
New "Load.BT_1014356_1_M1" bus1="1001014356.1.4" phases=1 conn=Wye model=2 kv=0.220000000 kw = 0.2950705 pf=0.92 status=variable vmaxpu=1.5 vminpu=0.92 daily="RES1_26_SA"  
New "Load.BT_1014356_1_M2" bus1="1001014356.1.4" phases=1 conn=Wye model=3 kv=0.220000000 kw = 0.2950705 pf=0.92 status=variable vmaxpu=1.5 vminpu=0.92 daily="RES1_26_SA" 
New "Load.BT_1041236_1_M1" bus1="1001041236.1.2.3.4" phases=3 conn=Delta model=2 kv=0.220000000 kw = 0.33319 pf=0.92 status=variable vmaxpu=1.5 vminpu=0.92 daily="RES1_3_SA"  
New "Load.BT_1041236_1_M2" bus1="1001041236.1.2.3.4" phases=3 conn=Delta model=3 kv=0.220000000 kw = 0.33319 pf=0.92 status=variable vmaxpu=1.5 vminpu=0.92 daily="RES1_3_SA" 
New "Load.BT_1011843_M1" bus1="1001011843.3.4" phases=1 conn=Wye model=2 kv=0.220000000 kw = 0.1071915 pf=0.92 status=variable vmaxpu=1.5 vminpu=0.92 daily="RES1_26_SA"  
New "Load.BT_1011843_M2" bus1="1001011843.3.4" phases=1 conn=Wye model=3 kv=0.220000000 kw = 0.1071915 pf=0.92 status=variable vmaxpu=1.5 vminpu=0.92 daily="RES1_26_SA" 

New "Load.BT_1041215_1_M1" bus1="1001041215.1.2.3.4" phases=3 conn=Delta model=2 kv=0.220000000 kw = 0.054616 pf=0.92 status=variable vmaxpu=1.5 vminpu=0.92 daily="COM1_8_SA"  
New "Load.BT_1041215_1_M2" bus1="1001041215.1.2.3.4" phases=3 conn=Delta model=3 kv=0.220000000 kw = 0.054616 pf=0.92 status=variable vmaxpu=1.5 vminpu=0.92 daily="COM1_8_SA" 

New "Load.BT_1018927_M1" bus1="1001018927.1.2.4" phases=1 conn=Delta model=2 kv=0.220000000 kw = 0.387667 pf=0.92 status=variable vmaxpu=1.5 vminpu=0.92 daily="RES1_4_SA"  
New "Load.BT_1018927_M2" bus1="1001018927.1.2.4" phases=1 conn=Delta model=3 kv=0.220000000 kw = 0.387667 pf=0.92 status=variable vmaxpu=1.5 vminpu=0.92 daily="RES1_4_SA" 
New "Load.BT_1044939_M1" bus1="1001044939.1.2.3.4" phases=3 conn=Delta model=2 kv=0.220000000 kw = 0.2125 pf=0.92 status=variable vmaxpu=1.5 vminpu=0.92 daily="RES1_19_SA"  
New "Load.BT_1044939_M2" bus1="1001044939.1.2.3.4" phases=3 conn=Delta model=3 kv=0.220000000 kw = 0.2125 pf=0.92 status=variable vmaxpu=1.5 vminpu=0.92 daily="RES1_19_SA" 
New "Load.BT_1019802_1_M1" bus1="1001019802.1.2.3.4" phases=3 conn=Delta model=2 kv=0.220000000 kw = 0.16238 pf=0.92 status=variable vmaxpu=1.5 vminpu=0.92 daily="COM1_5_SA"  
New "Load.BT_1019802_1_M2" bus1="1001019802.1.2.3.4" phases=3 conn=Delta model=3 kv=0.220000000 kw = 0.16238 pf=0.92 status=variable vmaxpu=1.5 vminpu=0.92 daily="COM1_5_SA" 

New "Load.BT_1020733_1_M1" bus1="1001020733.1.2.3.4" phases=3 conn=Delta model=2 kv=0.220000000 kw = 0.177814 pf=0.92 status=variable vmaxpu=1.5 vminpu=0.92 daily="RES1_10_SA"  
New "Load.BT_1020733_1_M2" bus1="1001020733.1.2.3.4" phases=3 conn=Delta model=3 kv=0.220000000 kw = 0.177814 pf=0.92 status=variable vmaxpu=1.5 vminpu=0.92 daily="RES1_10_SA" 
New "Load.BT_996534_1_M1" bus1="1000996534.1.2.4" phases=1 conn=Delta model=2 kv=0.220000000 kw = 0.0647895 pf=0.92 status=variable vmaxpu=1.5 vminpu=0.92 daily="RES1_18_SA"  
New "Load.BT_996534_1_M2" bus1="1000996534.1.2.4" phases=1 conn=Delta model=3 kv=0.220000000 kw = 0.0647895 pf=0.92 status=variable vmaxpu=1.5 vminpu=0.92 daily="RES1_18_SA" 
New "Load.BT_994770_M1" bus1="1000994770.3.4" phases=1 conn=Wye model=2 kv=0.220000000 kw = 0.158919 pf=0.92 status=variable vmaxpu=1.5 vminpu=0.92 daily="RES1_1_SA"  
New "Load.BT_994770_M2" bus1="1000994770.3.4" phases=1 conn=Wye model=3 kv=0.220000000 kw = 0.158919 pf=0.92 status=variable vmaxpu=1.5 vminpu=0.92 daily="RES1_1_SA" 

New "Load.BT_1036700_1_M1" bus1="1001036700.1.2.3.4" phases=3 conn=Delta model=2 kv=0.220000000 kw = 0.396868 pf=0.92 status=variable vmaxpu=1.5 vminpu=0.92 daily="RES1_11_SA"  
New "Load.BT_1036700_1_M2" bus1="1001036700.1.2.3.4" phases=3 conn=Delta model=3 kv=0.220000000 kw = 0.396868 pf=0.92 status=variable vmaxpu=1.5 vminpu=0.92 daily="RES1_11_SA" 
New "Load.BT_4403154_1_M1" bus1="1004403154.1.2.3.4" phases=3 conn=Delta model=2 kv=0.220000000 kw = 0.1499395 pf=0.92 status=variable vmaxpu=1.5 vminpu=0.92 daily="RES1_2_SA"  
New "Load.BT_4403154_1_M2" bus1="1004403154.1.2.3.4" phases=3 conn=Delta model=3 kv=0.220000000 kw = 0.1499395 pf=0.92 status=variable vmaxpu=1.5 vminpu=0.92 daily="RES1_2_SA" 
New "Load.BT_1037869_M1" bus1="1001037869.1.2.3.4" phases=3 conn=Delta model=2 kv=0.220000000 kw = 0.3927485 pf=0.92 status=variable vmaxpu=1.5 vminpu=0.92 daily="RES1_9_SA"  
New "Load.BT_1037869_M2" bus1="1001037869.1.2.3.4" phases=3 conn=Delta model=3 kv=0.220000000 kw = 0.3927485 pf=0.92 status=variable vmaxpu=1.5 vminpu=0.92 daily="RES1_9_SA" 
New "Load.BT_1007510_M1" bus1="1001007510.1.4" phases=1 conn=Wye model=2 kv=0.220000000 kw = 0.1430455 pf=0.92 status=variable vmaxpu=1.5 vminpu=0.92 daily="RES1_1_SA"  
New "Load.BT_1007510_M2" bus1="1001007510.1.4" phases=1 conn=Wye model=3 kv=0.220000000 kw = 0.1430455 pf=0.92 status=variable vmaxpu=1.5 vminpu=0.92 daily="RES1_1_SA" 
New "Load.BT_10091795_M1" bus1="1010091795.1.2.4" phases=1 conn=Delta model=2 kv=0.240000000 kw = 0.4676415 pf=0.92 status=variable vmaxpu=1.5 vminpu=0.92 daily="RES1_4_SA"  
New "Load.BT_10091795_M2" bus1="1010091795.1.2.4" phases=1 conn=Delta model=3 kv=0.240000000 kw = 0.4676415 pf=0.92 status=variable vmaxpu=1.5 vminpu=0.92 daily="RES1_4_SA" 
New "Load.BT_1012018_M1" bus1="1001012018.2.4" phases=1 conn=Wye model=2 kv=0.220000000 kw = 0.158906 pf=0.92 status=variable vmaxpu=1.5 vminpu=0.92 daily="RES1_1_SA"  
New "Load.BT_1012018_M2" bus1="1001012018.2.4" phases=1 conn=Wye model=3 kv=0.220000000 kw = 0.158906 pf=0.92 status=variable vmaxpu=1.5 vminpu=0.92 daily="RES1_1_SA" 

New "Load.BT_1023057_1_M1" bus1="1001023057.1.2.3.4" phases=3 conn=Delta model=2 kv=0.220000000 kw = 0.012525 pf=0.92 status=variable vmaxpu=1.5 vminpu=0.92 daily="RES1_11_SA"  
New "Load.BT_1023057_1_M2" bus1="1001023057.1.2.3.4" phases=3 conn=Delta model=3 kv=0.220000000 kw = 0.012525 pf=0.92 status=variable vmaxpu=1.5 vminpu=0.92 daily="RES1_11_SA" 
New "Load.BT_10237022_1_M1" bus1="1010237022.1.2.3.4" phases=3 conn=Delta model=2 kv=0.220000000 kw = 0.260792 pf=0.92 status=variable vmaxpu=1.5 vminpu=0.92 daily="RES1_17_SA"  
New "Load.BT_10237022_1_M2" bus1="1010237022.1.2.3.4" phases=3 conn=Delta model=3 kv=0.220000000 kw = 0.260792 pf=0.92 status=variable vmaxpu=1.5 vminpu=0.92 daily="RES1_17_SA" 
New "Load.BT_11171629_M1" bus1="1011171629.3.1.4" phases=1 conn=Delta model=2 kv=0.220000000 kw = 0.003413 pf=0.92 status=variable vmaxpu=1.5 vminpu=0.92 daily="RES1_6_SA"  
New "Load.BT_11171629_M2" bus1="1011171629.3.1.4" phases=1 conn=Delta model=3 kv=0.220000000 kw = 0.003413 pf=0.92 status=variable vmaxpu=1.5 vminpu=0.92 daily="RES1_6_SA" 
New "Load.BT_1011332_1_M1" bus1="1001011332.3.4" phases=1 conn=Wye model=2 kv=0.220000000 kw = 0.3202095 pf=0.92 status=variable vmaxpu=1.5 vminpu=0.92 daily="COM1_3_SA"  
New "Load.BT_1011332_1_M2" bus1="1001011332.3.4" phases=1 conn=Wye model=3 kv=0.220000000 kw = 0.3202095 pf=0.92 status=variable vmaxpu=1.5 vminpu=0.92 daily="COM1_3_SA" 
New "Load.BT_1020299_1_M1" bus1="1001020299.2.4" phases=1 conn=Wye model=2 kv=0.120000000 kw = 0.03368 pf=0.92 status=variable vmaxpu=1.5 vminpu=0.92 daily="RES1_4_SA"  
New "Load.BT_1020299_1_M2" bus1="1001020299.2.4" phases=1 conn=Wye model=3 kv=0.120000000 kw = 0.03368 pf=0.92 status=variable vmaxpu=1.5 vminpu=0.92 daily="RES1_4_SA" 
New "Load.BT_1238209_1_M1" bus1="1001238209.3.1.4" phases=1 conn=Delta model=2 kv=0.220000000 kw = 0.1640825 pf=0.92 status=variable vmaxpu=1.5 vminpu=0.92 daily="RES1_23_SA"  
New "Load.BT_1238209_1_M2" bus1="1001238209.3.1.4" phases=1 conn=Delta model=3 kv=0.220000000 kw = 0.1640825 pf=0.92 status=variable vmaxpu=1.5 vminpu=0.92 daily="RES1_23_SA" 
New "Load.BT_11133959_M1" bus1="1011133959.1.2.3.4" phases=3 conn=Delta model=2 kv=0.220000000 kw = 0.3607205 pf=0.92 status=variable vmaxpu=1.5 vminpu=0.92 daily="RES1_17_SA"  
New "Load.BT_11133959_M2" bus1="1011133959.1.2.3.4" phases=3 conn=Delta model=3 kv=0.220000000 kw = 0.3607205 pf=0.92 status=variable vmaxpu=1.5 vminpu=0.92 daily="RES1_17_SA" 
New "Load.BT_1017744_1_M1" bus1="1001017744.3.1.4" phases=1 conn=Delta model=2 kv=0.220000000 kw = 0.1518755 pf=0.92 status=variable vmaxpu=1.5 vminpu=0.92 daily="COM1_11_SA"  
New "Load.BT_1017744_1_M2" bus1="1001017744.3.1.4" phases=1 conn=Delta model=3 kv=0.220000000 kw = 0.1518755 pf=0.92 status=variable vmaxpu=1.5 vminpu=0.92 daily="COM1_11_SA" 
New "Load.BT_1030169_M1" bus1="1001030169.3.1.4" phases=1 conn=Delta model=2 kv=0.220000000 kw = 0.8545395 pf=0.92 status=variable vmaxpu=1.5 vminpu=0.92 daily="RES1_2_SA"  
New "Load.BT_1030169_M2" bus1="1001030169.3.1.4" phases=1 conn=Delta model=3 kv=0.220000000 kw = 0.8545395 pf=0.92 status=variable vmaxpu=1.5 vminpu=0.92 daily="RES1_2_SA" 
New "Load.BT_998347_M1" bus1="1000998347.2.4" phases=1 conn=Wye model=2 kv=0.120000000 kw = 0.254677 pf=0.92 status=variable vmaxpu=1.5 vminpu=0.92 daily="RES1_2_SA"  
New "Load.BT_998347_M2" bus1="1000998347.2.4" phases=1 conn=Wye model=3 kv=0.120000000 kw = 0.254677 pf=0.92 status=variable vmaxpu=1.5 vminpu=0.92 daily="RES1_2_SA" 
New "Load.BT_1042573_M1" bus1="1001042573.1.4" phases=1 conn=Wye model=2 kv=0.220000000 kw = 0.6448345 pf=0.92 status=variable vmaxpu=1.5 vminpu=0.92 daily="RES1_19_SA"  
New "Load.BT_1042573_M2" bus1="1001042573.1.4" phases=1 conn=Wye model=3 kv=0.220000000 kw = 0.6448345 pf=0.92 status=variable vmaxpu=1.5 vminpu=0.92 daily="RES1_19_SA" 
New "Load.BT_1013796_1_M1" bus1="1001013796.1.2.3.4" phases=3 conn=Delta model=2 kv=0.220000000 kw = 0.1455295 pf=0.92 status=variable vmaxpu=1.5 vminpu=0.92 daily="RES1_2_SA"  
New "Load.BT_1013796_1_M2" bus1="1001013796.1.2.3.4" phases=3 conn=Delta model=3 kv=0.220000000 kw = 0.1455295 pf=0.92 status=variable vmaxpu=1.5 vminpu=0.92 daily="RES1_2_SA" 
New "Load.BT_1045807_M1" bus1="1001045807.1.2.3.4" phases=3 conn=Delta model=2 kv=0.220000000 kw = 0.2826005 pf=0.92 status=variable vmaxpu=1.5 vminpu=0.92 daily="RES1_19_SA"  
New "Load.BT_1045807_M2" bus1="1001045807.1.2.3.4" phases=3 conn=Delta model=3 kv=0.220000000 kw = 0.2826005 pf=0.92 status=variable vmaxpu=1.5 vminpu=0.92 daily="RES1_19_SA" 
New "Load.BT_1012620_1_M1" bus1="1001012620.1.2.4" phases=1 conn=Delta model=2 kv=0.220000000 kw = 0.075978 pf=0.92 status=variable vmaxpu=1.5 vminpu=0.92 daily="RES1_11_SA"  
New "Load.BT_1012620_1_M2" bus1="1001012620.1.2.4" phases=1 conn=Delta model=3 kv=0.220000000 kw = 0.075978 pf=0.92 status=variable vmaxpu=1.5 vminpu=0.92 daily="RES1_11_SA" 
New "Load.BT_1009666_1_M1" bus1="1001009666.1.4" phases=1 conn=Wye model=2 kv=0.220000000 kw = 0.084768 pf=0.92 status=variable vmaxpu=1.5 vminpu=0.92 daily="RES1_11_SA"  
New "Load.BT_1009666_1_M2" bus1="1001009666.1.4" phases=1 conn=Wye model=3 kv=0.220000000 kw = 0.084768 pf=0.92 status=variable vmaxpu=1.5 vminpu=0.92 daily="RES1_11_SA" 
New "Load.BT_10768779_M1" bus1="1010768779.3.1.4" phases=1 conn=Delta model=2 kv=0.220000000 kw = 0.0 pf=0.92 status=variable vmaxpu=1.5 vminpu=0.92 daily="RES1_6_SA"  
New "Load.BT_10768779_M2" bus1="1010768779.3.1.4" phases=1 conn=Delta model=3 kv=0.220000000 kw = 0.0 pf=0.92 status=variable vmaxpu=1.5 vminpu=0.92 daily="RES1_6_SA" 
New "Load.BT_4857615_2_M1" bus1="1004857615.1.2.3.4" phases=3 conn=Delta model=2 kv=0.220000000 kw = 0.3942845 pf=0.92 status=variable vmaxpu=1.5 vminpu=0.92 daily="RES1_11_SA"  
New "Load.BT_4857615_2_M2" bus1="1004857615.1.2.3.4" phases=3 conn=Delta model=3 kv=0.220000000 kw = 0.3942845 pf=0.92 status=variable vmaxpu=1.5 vminpu=0.92 daily="RES1_11_SA" 
New "Load.BT_1016904_M1" bus1="1001016904.3.4" phases=1 conn=Wye model=2 kv=0.220000000 kw = 0.297586 pf=0.92 status=variable vmaxpu=1.5 vminpu=0.92 daily="RES1_7_SA"  
New "Load.BT_1016904_M2" bus1="1001016904.3.4" phases=1 conn=Wye model=3 kv=0.220000000 kw = 0.297586 pf=0.92 status=variable vmaxpu=1.5 vminpu=0.92 daily="RES1_7_SA" 
New "Load.BT_3953810_1_M1" bus1="1003953810.1.2.3.4" phases=3 conn=Delta model=2 kv=0.220000000 kw = 0.0371955 pf=0.92 status=variable vmaxpu=1.5 vminpu=0.92 daily="RES1_6_SA"  
New "Load.BT_3953810_1_M2" bus1="1003953810.1.2.3.4" phases=3 conn=Delta model=3 kv=0.220000000 kw = 0.0371955 pf=0.92 status=variable vmaxpu=1.5 vminpu=0.92 daily="RES1_6_SA" 
New "Load.BT_1041201_M1" bus1="1001041201.1.2.3.4" phases=3 conn=Delta model=2 kv=0.220000000 kw = 0.308185 pf=0.92 status=variable vmaxpu=1.5 vminpu=0.92 daily="RES1_19_SA"  
New "Load.BT_1041201_M2" bus1="1001041201.1.2.3.4" phases=3 conn=Delta model=3 kv=0.220000000 kw = 0.308185 pf=0.92 status=variable vmaxpu=1.5 vminpu=0.92 daily="RES1_19_SA" 
New "Load.BT_11088406_M1" bus1="1011088406.1.2.4" phases=1 conn=Delta model=2 kv=0.220000000 kw = 0.135813 pf=0.92 status=variable vmaxpu=1.5 vminpu=0.92 daily="RES1_2_SA"  
New "Load.BT_11088406_M2" bus1="1011088406.1.2.4" phases=1 conn=Delta model=3 kv=0.220000000 kw = 0.135813 pf=0.92 status=variable vmaxpu=1.5 vminpu=0.92 daily="RES1_2_SA" 
New "Load.BT_1023960_M1" bus1="1001023960.1.2.3.4" phases=3 conn=Delta model=2 kv=0.220000000 kw = 3.5073585 pf=0.92 status=variable vmaxpu=1.5 vminpu=0.92 daily="COM1_5_SA"  
New "Load.BT_1023960_M2" bus1="1001023960.1.2.3.4" phases=3 conn=Delta model=3 kv=0.220000000 kw = 3.5073585 pf=0.92 status=variable vmaxpu=1.5 vminpu=0.92 daily="COM1_5_SA" 
New "Load.BT_10293138_M1" bus1="1010293138.1.2.4" phases=1 conn=Delta model=2 kv=0.220000000 kw = 0.0078745 pf=0.92 status=variable vmaxpu=1.5 vminpu=0.92 daily="RES1_8_SA"  
New "Load.BT_10293138_M2" bus1="1010293138.1.2.4" phases=1 conn=Delta model=3 kv=0.220000000 kw = 0.0078745 pf=0.92 status=variable vmaxpu=1.5 vminpu=0.92 daily="RES1_8_SA" 
New "Load.BT_1007531_1_M1" bus1="1001007531.1.4" phases=1 conn=Wye model=2 kv=0.220000000 kw = 0.102046 pf=0.92 status=variable vmaxpu=1.5 vminpu=0.92 daily="RES1_11_SA"  
New "Load.BT_1007531_1_M2" bus1="1001007531.1.4" phases=1 conn=Wye model=3 kv=0.220000000 kw = 0.102046 pf=0.92 status=variable vmaxpu=1.5 vminpu=0.92 daily="RES1_11_SA" 
New "Load.BT_1015063_M1" bus1="1001015063.3.4" phases=1 conn=Wye model=2 kv=0.220000000 kw = 0.1540285 pf=0.92 status=variable vmaxpu=1.5 vminpu=0.92 daily="RES1_26_SA"  
New "Load.BT_1015063_M2" bus1="1001015063.3.4" phases=1 conn=Wye model=3 kv=0.220000000 kw = 0.1540285 pf=0.92 status=variable vmaxpu=1.5 vminpu=0.92 daily="RES1_26_SA" 

New "Load.BT_1017604_1_M1" bus1="1001017604.1.2.3.4" phases=3 conn=Delta model=2 kv=0.220000000 kw = 0.010651 pf=0.92 status=variable vmaxpu=1.5 vminpu=0.92 daily="COM1_11_SA"  
New "Load.BT_1017604_1_M2" bus1="1001017604.1.2.3.4" phases=3 conn=Delta model=3 kv=0.220000000 kw = 0.010651 pf=0.92 status=variable vmaxpu=1.5 vminpu=0.92 daily="COM1_11_SA" 
New "Load.BT_1007657_1_M1" bus1="1001007657.3.1.4" phases=1 conn=Delta model=2 kv=0.220000000 kw = 0.181536 pf=0.92 status=variable vmaxpu=1.5 vminpu=0.92 daily="RES1_11_SA"  
New "Load.BT_1007657_1_M2" bus1="1001007657.3.1.4" phases=1 conn=Delta model=3 kv=0.220000000 kw = 0.181536 pf=0.92 status=variable vmaxpu=1.5 vminpu=0.92 daily="RES1_11_SA" 
New "Load.BT_1033809_1_M1" bus1="1001033809.1.2.3.4" phases=3 conn=Delta model=2 kv=0.220000000 kw = 0.2715675 pf=0.92 status=variable vmaxpu=1.5 vminpu=0.92 daily="RES1_2_SA"  
New "Load.BT_1033809_1_M2" bus1="1001033809.1.2.3.4" phases=3 conn=Delta model=3 kv=0.220000000 kw = 0.2715675 pf=0.92 status=variable vmaxpu=1.5 vminpu=0.92 daily="RES1_2_SA" 
New "Load.BT_10382334_1_M1" bus1="1010382334.1.2.3.4" phases=3 conn=Delta model=2 kv=0.220000000 kw = 0.206791 pf=0.92 status=variable vmaxpu=1.5 vminpu=0.92 daily="RES1_21_SA"  
New "Load.BT_10382334_1_M2" bus1="1010382334.1.2.3.4" phases=3 conn=Delta model=3 kv=0.220000000 kw = 0.206791 pf=0.92 status=variable vmaxpu=1.5 vminpu=0.92 daily="RES1_21_SA" 
New "Load.BT_1013796_2_M1" bus1="1001013796.1.2.3.4" phases=3 conn=Delta model=2 kv=0.220000000 kw = 0.028738 pf=0.92 status=variable vmaxpu=1.5 vminpu=0.92 daily="RES1_2_SA"  
New "Load.BT_1013796_2_M2" bus1="1001013796.1.2.3.4" phases=3 conn=Delta model=3 kv=0.220000000 kw = 0.028738 pf=0.92 status=variable vmaxpu=1.5 vminpu=0.92 daily="RES1_2_SA" 
New "Load.BT_1011024_1_M1" bus1="1001011024.1.2.3.4" phases=3 conn=Delta model=2 kv=0.220000000 kw = 0.306882 pf=0.92 status=variable vmaxpu=1.5 vminpu=0.92 daily="RES1_9_SA"  
New "Load.BT_1011024_1_M2" bus1="1001011024.1.2.3.4" phases=3 conn=Delta model=3 kv=0.220000000 kw = 0.306882 pf=0.92 status=variable vmaxpu=1.5 vminpu=0.92 daily="RES1_9_SA" 

New "Load.BT_1018759_M1" bus1="1001018759.1.2.4" phases=1 conn=Delta model=2 kv=0.220000000 kw = 0.2463535 pf=0.92 status=variable vmaxpu=1.5 vminpu=0.92 daily="COM1_17_SA"  
New "Load.BT_1018759_M2" bus1="1001018759.1.2.4" phases=1 conn=Delta model=3 kv=0.220000000 kw = 0.2463535 pf=0.92 status=variable vmaxpu=1.5 vminpu=0.92 daily="COM1_17_SA" 
New "Load.BT_10279082_M1" bus1="1010279082.1.2.3.4" phases=3 conn=Delta model=2 kv=0.220000000 kw = 0.470821 pf=0.92 status=variable vmaxpu=1.5 vminpu=0.92 daily="RES1_1_SA"  
New "Load.BT_10279082_M2" bus1="1010279082.1.2.3.4" phases=3 conn=Delta model=3 kv=0.220000000 kw = 0.470821 pf=0.92 status=variable vmaxpu=1.5 vminpu=0.92 daily="RES1_1_SA" 
New "Load.BT_1219407_1_M1" bus1="1001219407.1.2.3.4" phases=3 conn=Delta model=2 kv=0.220000000 kw = 0.564961 pf=0.92 status=variable vmaxpu=1.5 vminpu=0.92 daily="COM1_14_SA"  
New "Load.BT_1219407_1_M2" bus1="1001219407.1.2.3.4" phases=3 conn=Delta model=3 kv=0.220000000 kw = 0.564961 pf=0.92 status=variable vmaxpu=1.5 vminpu=0.92 daily="COM1_14_SA" 
New "Load.BT_1034719_M1" bus1="1001034719.1.2.3.4" phases=3 conn=Delta model=2 kv=0.220000000 kw = 0.2248525 pf=0.92 status=variable vmaxpu=1.5 vminpu=0.92 daily="RES1_5_SA"  
New "Load.BT_1034719_M2" bus1="1001034719.1.2.3.4" phases=3 conn=Delta model=3 kv=0.220000000 kw = 0.2248525 pf=0.92 status=variable vmaxpu=1.5 vminpu=0.92 daily="RES1_5_SA" 
New "Load.BT_1042216_1_M1" bus1="1001042216.1.2.3.4" phases=3 conn=Delta model=2 kv=0.220000000 kw = 0.408737 pf=0.92 status=variable vmaxpu=1.5 vminpu=0.92 daily="RES1_19_SA"  
New "Load.BT_1042216_1_M2" bus1="1001042216.1.2.3.4" phases=3 conn=Delta model=3 kv=0.220000000 kw = 0.408737 pf=0.92 status=variable vmaxpu=1.5 vminpu=0.92 daily="RES1_19_SA" 
New "Load.BT_1007412_1_M1" bus1="1001007412.3.1.4" phases=1 conn=Delta model=2 kv=0.220000000 kw = 0.0247385 pf=0.92 status=variable vmaxpu=1.5 vminpu=0.92 daily="RES1_1_SA"  
New "Load.BT_1007412_1_M2" bus1="1001007412.3.1.4" phases=1 conn=Delta model=3 kv=0.220000000 kw = 0.0247385 pf=0.92 status=variable vmaxpu=1.5 vminpu=0.92 daily="RES1_1_SA" 
New "Load.BT_10367201_1_M1" bus1="1010367201.1.2.4" phases=1 conn=Delta model=2 kv=0.220000000 kw = 0.4347375 pf=0.92 status=variable vmaxpu=1.5 vminpu=0.92 daily="RES1_4_SA"  
New "Load.BT_10367201_1_M2" bus1="1010367201.1.2.4" phases=1 conn=Delta model=3 kv=0.220000000 kw = 0.4347375 pf=0.92 status=variable vmaxpu=1.5 vminpu=0.92 daily="RES1_4_SA" 
New "Load.BT_1025017_1_M1" bus1="1001025017.1.2.3.4" phases=3 conn=Delta model=2 kv=0.220000000 kw = 0.107104 pf=0.92 status=variable vmaxpu=1.5 vminpu=0.92 daily="RES1_2_SA"  
New "Load.BT_1025017_1_M2" bus1="1001025017.1.2.3.4" phases=3 conn=Delta model=3 kv=0.220000000 kw = 0.107104 pf=0.92 status=variable vmaxpu=1.5 vminpu=0.92 daily="RES1_2_SA" 
New "Load.BT_1017597_1_M1" bus1="1001017597.3.4" phases=1 conn=Wye model=2 kv=0.220000000 kw = 0.0 pf=0.92 status=variable vmaxpu=1.5 vminpu=0.92 daily="COM1_7_SA"  
New "Load.BT_1017597_1_M2" bus1="1001017597.3.4" phases=1 conn=Wye model=3 kv=0.220000000 kw = 0.0 pf=0.92 status=variable vmaxpu=1.5 vminpu=0.92 daily="COM1_7_SA" 

New "Load.BT_994315_1_M1" bus1="1000994315.2.4" phases=1 conn=Wye model=2 kv=0.220000000 kw = 0.363414 pf=0.92 status=variable vmaxpu=1.5 vminpu=0.92 daily="RES1_14_SA"  
New "Load.BT_994315_1_M2" bus1="1000994315.2.4" phases=1 conn=Wye model=3 kv=0.220000000 kw = 0.363414 pf=0.92 status=variable vmaxpu=1.5 vminpu=0.92 daily="RES1_14_SA" 
New "Load.BT_11308469_M1" bus1="1011308469.1.2.3.4" phases=3 conn=Delta model=2 kv=0.220000000 kw = 0.217531 pf=0.92 status=variable vmaxpu=1.5 vminpu=0.92 daily="RES1_7_SA"  
New "Load.BT_11308469_M2" bus1="1011308469.1.2.3.4" phases=3 conn=Delta model=3 kv=0.220000000 kw = 0.217531 pf=0.92 status=variable vmaxpu=1.5 vminpu=0.92 daily="RES1_7_SA" 
New "Load.BT_1021643_M1" bus1="1001021643.2.3.4" phases=1 conn=Delta model=2 kv=0.220000000 kw = 0.1424485 pf=0.92 status=variable vmaxpu=1.5 vminpu=0.92 daily="COM1_11_SA"  
New "Load.BT_1021643_M2" bus1="1001021643.2.3.4" phases=1 conn=Delta model=3 kv=0.220000000 kw = 0.1424485 pf=0.92 status=variable vmaxpu=1.5 vminpu=0.92 daily="COM1_11_SA" 
New "Load.BT_4776198_M1" bus1="1004776198.1.4" phases=1 conn=Wye model=2 kv=0.220000000 kw = 0.2097675 pf=0.92 status=variable vmaxpu=1.5 vminpu=0.92 daily="RES1_23_SA"  
New "Load.BT_4776198_M2" bus1="1004776198.1.4" phases=1 conn=Wye model=3 kv=0.220000000 kw = 0.2097675 pf=0.92 status=variable vmaxpu=1.5 vminpu=0.92 daily="RES1_23_SA" 
New "Load.BT_1021118_M1" bus1="1001021118.1.2.3.4" phases=3 conn=Delta model=2 kv=0.220000000 kw = 0.412515 pf=0.92 status=variable vmaxpu=1.5 vminpu=0.92 daily="COM1_6_SA"  
New "Load.BT_1021118_M2" bus1="1001021118.1.2.3.4" phases=3 conn=Delta model=3 kv=0.220000000 kw = 0.412515 pf=0.92 status=variable vmaxpu=1.5 vminpu=0.92 daily="COM1_6_SA" 
New "Load.BT_1012627_M1" bus1="1001012627.1.4" phases=1 conn=Wye model=2 kv=0.220000000 kw = 0.500184 pf=0.92 status=variable vmaxpu=1.5 vminpu=0.92 daily="RES1_26_SA"  
New "Load.BT_1012627_M2" bus1="1001012627.1.4" phases=1 conn=Wye model=3 kv=0.220000000 kw = 0.500184 pf=0.92 status=variable vmaxpu=1.5 vminpu=0.92 daily="RES1_26_SA" 
New "Load.BT_1043392_M1" bus1="1001043392.1.2.3.4" phases=3 conn=Delta model=2 kv=0.220000000 kw = 0.321357 pf=0.92 status=variable vmaxpu=1.5 vminpu=0.92 daily="RES1_19_SA"  
New "Load.BT_1043392_M2" bus1="1001043392.1.2.3.4" phases=3 conn=Delta model=3 kv=0.220000000 kw = 0.321357 pf=0.92 status=variable vmaxpu=1.5 vminpu=0.92 daily="RES1_19_SA" 
New "Load.BT_4087006_M1" bus1="1004087006.1.2.4" phases=1 conn=Delta model=2 kv=0.220000000 kw = 0.189615 pf=0.92 status=variable vmaxpu=1.5 vminpu=0.92 daily="RES1_2_SA"  
New "Load.BT_4087006_M2" bus1="1004087006.1.2.4" phases=1 conn=Delta model=3 kv=0.220000000 kw = 0.189615 pf=0.92 status=variable vmaxpu=1.5 vminpu=0.92 daily="RES1_2_SA" 
New "Load.BT_4807852_M1" bus1="1004807852.1.2.4" phases=1 conn=Delta model=2 kv=0.220000000 kw = 0.350951 pf=0.92 status=variable vmaxpu=1.5 vminpu=0.92 daily="RES1_12_SA"  
New "Load.BT_4807852_M2" bus1="1004807852.1.2.4" phases=1 conn=Delta model=3 kv=0.220000000 kw = 0.350951 pf=0.92 status=variable vmaxpu=1.5 vminpu=0.92 daily="RES1_12_SA" 
New "Load.BT_1030022_M1" bus1="1001030022.2.4" phases=1 conn=Wye model=2 kv=0.220000000 kw = 0.3089935 pf=0.92 status=variable vmaxpu=1.5 vminpu=0.92 daily="RES1_2_SA"  
New "Load.BT_1030022_M2" bus1="1001030022.2.4" phases=1 conn=Wye model=3 kv=0.220000000 kw = 0.3089935 pf=0.92 status=variable vmaxpu=1.5 vminpu=0.92 daily="RES1_2_SA" 

New "Load.BT_4464467_M1" bus1="1004464467.1.2.4" phases=1 conn=Delta model=2 kv=0.220000000 kw = 0.2964545 pf=0.92 status=variable vmaxpu=1.5 vminpu=0.92 daily="RES1_2_SA"  
New "Load.BT_4464467_M2" bus1="1004464467.1.2.4" phases=1 conn=Delta model=3 kv=0.220000000 kw = 0.2964545 pf=0.92 status=variable vmaxpu=1.5 vminpu=0.92 daily="RES1_2_SA" 
New "Load.BT_1005256_M1" bus1="1001005256.3.4" phases=1 conn=Wye model=2 kv=0.220000000 kw = 0.2330125 pf=0.92 status=variable vmaxpu=1.5 vminpu=0.92 daily="RES1_23_SA"  
New "Load.BT_1005256_M2" bus1="1001005256.3.4" phases=1 conn=Wye model=3 kv=0.220000000 kw = 0.2330125 pf=0.92 status=variable vmaxpu=1.5 vminpu=0.92 daily="RES1_23_SA" 
New "Load.BT_4857615_3_M1" bus1="1004857615.1.2.3.4" phases=3 conn=Delta model=2 kv=0.220000000 kw = 0.644215 pf=0.92 status=variable vmaxpu=1.5 vminpu=0.92 daily="RES1_16_SA"  
New "Load.BT_4857615_3_M2" bus1="1004857615.1.2.3.4" phases=3 conn=Delta model=3 kv=0.220000000 kw = 0.644215 pf=0.92 status=variable vmaxpu=1.5 vminpu=0.92 daily="RES1_16_SA" 
New "Load.BT_1033718_1_M1" bus1="1001033718.1.2.3.4" phases=3 conn=Delta model=2 kv=0.220000000 kw = 0.237478 pf=0.92 status=variable vmaxpu=1.5 vminpu=0.92 daily="RES1_2_SA"  
New "Load.BT_1033718_1_M2" bus1="1001033718.1.2.3.4" phases=3 conn=Delta model=3 kv=0.220000000 kw = 0.237478 pf=0.92 status=variable vmaxpu=1.5 vminpu=0.92 daily="RES1_2_SA" 
New "Load.BT_1025507_1_M1" bus1="1001025507.1.2.4" phases=1 conn=Delta model=2 kv=0.220000000 kw = 0.31649 pf=0.92 status=variable vmaxpu=1.5 vminpu=0.92 daily="RES1_4_SA"  
New "Load.BT_1025507_1_M2" bus1="1001025507.1.2.4" phases=1 conn=Delta model=3 kv=0.220000000 kw = 0.31649 pf=0.92 status=variable vmaxpu=1.5 vminpu=0.92 daily="RES1_4_SA" 
New "Load.BT_10139470_1_M1" bus1="1010139470.1.2.3.4" phases=3 conn=Delta model=2 kv=0.220000000 kw = 0.1363695 pf=0.92 status=variable vmaxpu=1.5 vminpu=0.92 daily="RES1_17_SA"  
New "Load.BT_10139470_1_M2" bus1="1010139470.1.2.3.4" phases=3 conn=Delta model=3 kv=0.220000000 kw = 0.1363695 pf=0.92 status=variable vmaxpu=1.5 vminpu=0.92 daily="RES1_17_SA" 
New "Load.BT_1024485_1_M1" bus1="1001024485.1.2.4" phases=1 conn=Delta model=2 kv=0.240000000 kw = 0.065275 pf=0.92 status=variable vmaxpu=1.5 vminpu=0.92 daily="RES1_12_SA"  
New "Load.BT_1024485_1_M2" bus1="1001024485.1.2.4" phases=1 conn=Delta model=3 kv=0.240000000 kw = 0.065275 pf=0.92 status=variable vmaxpu=1.5 vminpu=0.92 daily="RES1_12_SA" 
New "Load.BT_1041327_1_M1" bus1="1001041327.1.2.3.4" phases=3 conn=Delta model=2 kv=0.220000000 kw = 0.184181 pf=0.92 status=variable vmaxpu=1.5 vminpu=0.92 daily="RES1_19_SA"  
New "Load.BT_1041327_1_M2" bus1="1001041327.1.2.3.4" phases=3 conn=Delta model=3 kv=0.220000000 kw = 0.184181 pf=0.92 status=variable vmaxpu=1.5 vminpu=0.92 daily="RES1_19_SA" 
New "Load.BT_1017002_1_M1" bus1="1001017002.1.2.3.4" phases=3 conn=Delta model=2 kv=0.220000000 kw = 0.084745 pf=0.92 status=variable vmaxpu=1.5 vminpu=0.92 daily="COM1_19_SA"  
New "Load.BT_1017002_1_M2" bus1="1001017002.1.2.3.4" phases=3 conn=Delta model=3 kv=0.220000000 kw = 0.084745 pf=0.92 status=variable vmaxpu=1.5 vminpu=0.92 daily="COM1_19_SA" 
New "Load.BT_1007776_1_M1" bus1="1001007776.1.2.4" phases=1 conn=Delta model=2 kv=0.220000000 kw = 0.0776555 pf=0.92 status=variable vmaxpu=1.5 vminpu=0.92 daily="RES1_11_SA"  
New "Load.BT_1007776_1_M2" bus1="1001007776.1.2.4" phases=1 conn=Delta model=3 kv=0.220000000 kw = 0.0776555 pf=0.92 status=variable vmaxpu=1.5 vminpu=0.92 daily="RES1_11_SA" 
New "Load.BT_1204126_1_M1" bus1="1001204126.1.2.3.4" phases=3 conn=Delta model=2 kv=0.220000000 kw = 0.1378855 pf=0.92 status=variable vmaxpu=1.5 vminpu=0.92 daily="COM1_14_SA"  
New "Load.BT_1204126_1_M2" bus1="1001204126.1.2.3.4" phases=3 conn=Delta model=3 kv=0.220000000 kw = 0.1378855 pf=0.92 status=variable vmaxpu=1.5 vminpu=0.92 daily="COM1_14_SA" 
New "Load.BT_1036735_1_M1" bus1="1001036735.1.4" phases=1 conn=Wye model=2 kv=0.220000000 kw = 0.5464835 pf=0.92 status=variable vmaxpu=1.5 vminpu=0.92 daily="RES1_5_SA"  
New "Load.BT_1036735_1_M2" bus1="1001036735.1.4" phases=1 conn=Wye model=3 kv=0.220000000 kw = 0.5464835 pf=0.92 status=variable vmaxpu=1.5 vminpu=0.92 daily="RES1_5_SA" 
New "Load.BT_1020005_1_M1" bus1="1001020005.3.4" phases=1 conn=Wye model=2 kv=0.220000000 kw = 0.3645805 pf=0.92 status=variable vmaxpu=1.5 vminpu=0.92 daily="RES1_12_SA"  
New "Load.BT_1020005_1_M2" bus1="1001020005.3.4" phases=1 conn=Wye model=3 kv=0.220000000 kw = 0.3645805 pf=0.92 status=variable vmaxpu=1.5 vminpu=0.92 daily="RES1_12_SA" 
New "Load.BT_995778_1_M1" bus1="1000995778.3.4" phases=1 conn=Wye model=2 kv=0.220000000 kw = 0.1624495 pf=0.92 status=variable vmaxpu=1.5 vminpu=0.92 daily="RES1_1_SA"  
New "Load.BT_995778_1_M2" bus1="1000995778.3.4" phases=1 conn=Wye model=3 kv=0.220000000 kw = 0.1624495 pf=0.92 status=variable vmaxpu=1.5 vminpu=0.92 daily="RES1_1_SA" 
New "Load.BT_1045891_M1" bus1="1001045891.1.2.4" phases=1 conn=Delta model=2 kv=0.220000000 kw = 0.1794925 pf=0.92 status=variable vmaxpu=1.5 vminpu=0.92 daily="RES1_19_SA"  
New "Load.BT_1045891_M2" bus1="1001045891.1.2.4" phases=1 conn=Delta model=3 kv=0.220000000 kw = 0.1794925 pf=0.92 status=variable vmaxpu=1.5 vminpu=0.92 daily="RES1_19_SA" 
New "Load.BT_1007776_2_M1" bus1="1001007776.1.2.4" phases=1 conn=Delta model=2 kv=0.220000000 kw = 0.068709 pf=0.92 status=variable vmaxpu=1.5 vminpu=0.92 daily="RES1_11_SA"  
New "Load.BT_1007776_2_M2" bus1="1001007776.1.2.4" phases=1 conn=Delta model=3 kv=0.220000000 kw = 0.068709 pf=0.92 status=variable vmaxpu=1.5 vminpu=0.92 daily="RES1_11_SA" 
New "Load.BT_3667923_M1" bus1="1003667923.3.1.4" phases=1 conn=Delta model=2 kv=0.220000000 kw = 0.1274385 pf=0.92 status=variable vmaxpu=1.5 vminpu=0.92 daily="RES1_14_SA"  
New "Load.BT_3667923_M2" bus1="1003667923.3.1.4" phases=1 conn=Delta model=3 kv=0.220000000 kw = 0.1274385 pf=0.92 status=variable vmaxpu=1.5 vminpu=0.92 daily="RES1_14_SA" 
New "Load.BT_1011969_M1" bus1="1001011969.2.4" phases=1 conn=Wye model=2 kv=0.220000000 kw = 0.016998 pf=0.92 status=variable vmaxpu=1.5 vminpu=0.92 daily="RES1_1_SA"  
New "Load.BT_1011969_M2" bus1="1001011969.2.4" phases=1 conn=Wye model=3 kv=0.220000000 kw = 0.016998 pf=0.92 status=variable vmaxpu=1.5 vminpu=0.92 daily="RES1_1_SA" 
New "Load.BT_1018290_M1" bus1="1001018290.2.4" phases=1 conn=Wye model=2 kv=0.220000000 kw = 0.1423355 pf=0.92 status=variable vmaxpu=1.5 vminpu=0.92 daily="RES1_7_SA"  
New "Load.BT_1018290_M2" bus1="1001018290.2.4" phases=1 conn=Wye model=3 kv=0.220000000 kw = 0.1423355 pf=0.92 status=variable vmaxpu=1.5 vminpu=0.92 daily="RES1_7_SA" 
New "Load.BT_11016062_M1" bus1="1011016062.1.2.4" phases=1 conn=Delta model=2 kv=0.220000000 kw = 0.15679 pf=0.92 status=variable vmaxpu=1.5 vminpu=0.92 daily="RES1_2_SA"  
New "Load.BT_11016062_M2" bus1="1011016062.1.2.4" phases=1 conn=Delta model=3 kv=0.220000000 kw = 0.15679 pf=0.92 status=variable vmaxpu=1.5 vminpu=0.92 daily="RES1_2_SA" 
New "Load.BT_1027880_M1" bus1="1001027880.3.4" phases=1 conn=Wye model=2 kv=0.220000000 kw = 0.256441 pf=0.92 status=variable vmaxpu=1.5 vminpu=0.92 daily="RES1_2_SA"  
New "Load.BT_1027880_M2" bus1="1001027880.3.4" phases=1 conn=Wye model=3 kv=0.220000000 kw = 0.256441 pf=0.92 status=variable vmaxpu=1.5 vminpu=0.92 daily="RES1_2_SA" 
New "Load.BT_11409246_1_M1" bus1="1011409246.1.2.3.4" phases=3 conn=Delta model=2 kv=0.220000000 kw = 0.5167255 pf=0.92 status=variable vmaxpu=1.5 vminpu=0.92 daily="RES1_14_SA"  
New "Load.BT_11409246_1_M2" bus1="1011409246.1.2.3.4" phases=3 conn=Delta model=3 kv=0.220000000 kw = 0.5167255 pf=0.92 status=variable vmaxpu=1.5 vminpu=0.92 daily="RES1_14_SA" 

New "Load.BT_1018458_M1" bus1="1001018458.1.2.3.4" phases=3 conn=Delta model=2 kv=0.220000000 kw = 0.222261 pf=0.92 status=variable vmaxpu=1.5 vminpu=0.92 daily="RES1_7_SA"  
New "Load.BT_1018458_M2" bus1="1001018458.1.2.3.4" phases=3 conn=Delta model=3 kv=0.220000000 kw = 0.222261 pf=0.92 status=variable vmaxpu=1.5 vminpu=0.92 daily="RES1_7_SA" 
New "Load.BT_4270686_M1" bus1="1004270686.3.1.4" phases=1 conn=Delta model=2 kv=0.220000000 kw = 0.1570105 pf=0.92 status=variable vmaxpu=1.5 vminpu=0.92 daily="COM1_13_SA"  
New "Load.BT_4270686_M2" bus1="1004270686.3.1.4" phases=1 conn=Delta model=3 kv=0.220000000 kw = 0.1570105 pf=0.92 status=variable vmaxpu=1.5 vminpu=0.92 daily="COM1_13_SA" 
New "Load.BT_3879505_1_M1" bus1="1003879505.3.4" phases=1 conn=Wye model=2 kv=0.220000000 kw = 0.1487345 pf=0.92 status=variable vmaxpu=1.5 vminpu=0.92 daily="RES1_2_SA"  
New "Load.BT_3879505_1_M2" bus1="1003879505.3.4" phases=1 conn=Wye model=3 kv=0.220000000 kw = 0.1487345 pf=0.92 status=variable vmaxpu=1.5 vminpu=0.92 daily="RES1_2_SA" 
New "Load.BT_6474843_1_M1" bus1="1006474843.1.2.3.4" phases=3 conn=Delta model=2 kv=0.220000000 kw = 0.493664 pf=0.92 status=variable vmaxpu=1.5 vminpu=0.92 daily="RES1_1_SA"  
New "Load.BT_6474843_1_M2" bus1="1006474843.1.2.3.4" phases=3 conn=Delta model=3 kv=0.220000000 kw = 0.493664 pf=0.92 status=variable vmaxpu=1.5 vminpu=0.92 daily="RES1_1_SA" 
New "Load.BT_1020327_1_M1" bus1="1001020327.1.2.4" phases=1 conn=Delta model=2 kv=0.240000000 kw = 0.2011815 pf=0.92 status=variable vmaxpu=1.5 vminpu=0.92 daily="RES1_4_SA"  
New "Load.BT_1020327_1_M2" bus1="1001020327.1.2.4" phases=1 conn=Delta model=3 kv=0.240000000 kw = 0.2011815 pf=0.92 status=variable vmaxpu=1.5 vminpu=0.92 daily="RES1_4_SA" 
New "Load.BT_1204126_2_M1" bus1="1001204126.1.2.3.4" phases=3 conn=Delta model=2 kv=0.220000000 kw = 1.143847 pf=0.92 status=variable vmaxpu=1.5 vminpu=0.92 daily="COM1_14_SA"  
New "Load.BT_1204126_2_M2" bus1="1001204126.1.2.3.4" phases=3 conn=Delta model=3 kv=0.220000000 kw = 1.143847 pf=0.92 status=variable vmaxpu=1.5 vminpu=0.92 daily="COM1_14_SA" 
New "Load.BT_5024362_M1" bus1="1005024362.1.2.3.4" phases=3 conn=Delta model=2 kv=0.220000000 kw = 0.0 pf=0.92 status=variable vmaxpu=1.5 vminpu=0.92 daily="COM1_21_SA"  
New "Load.BT_5024362_M2" bus1="1005024362.1.2.3.4" phases=3 conn=Delta model=3 kv=0.220000000 kw = 0.0 pf=0.92 status=variable vmaxpu=1.5 vminpu=0.92 daily="COM1_21_SA" 
New "Load.BT_10761308_1_M1" bus1="1010761308.1.2.3.4" phases=3 conn=Delta model=2 kv=0.220000000 kw = 0.3626445 pf=0.92 status=variable vmaxpu=1.5 vminpu=0.92 daily="RES1_18_SA"  
New "Load.BT_10761308_1_M2" bus1="1010761308.1.2.3.4" phases=3 conn=Delta model=3 kv=0.220000000 kw = 0.3626445 pf=0.92 status=variable vmaxpu=1.5 vminpu=0.92 daily="RES1_18_SA" 
New "Load.BT_1243732_M1" bus1="1001243732.3.4" phases=1 conn=Wye model=2 kv=0.220000000 kw = 0.1776355 pf=0.92 status=variable vmaxpu=1.5 vminpu=0.92 daily="RES1_25_SA"  
New "Load.BT_1243732_M2" bus1="1001243732.3.4" phases=1 conn=Wye model=3 kv=0.220000000 kw = 0.1776355 pf=0.92 status=variable vmaxpu=1.5 vminpu=0.92 daily="RES1_25_SA" 
New "Load.BT_5052075_1_M1" bus1="1005052075.1.2.4" phases=1 conn=Delta model=2 kv=0.220000000 kw = 0.5134165 pf=0.92 status=variable vmaxpu=1.5 vminpu=0.92 daily="COM1_4_SA"  
New "Load.BT_5052075_1_M2" bus1="1005052075.1.2.4" phases=1 conn=Delta model=3 kv=0.220000000 kw = 0.5134165 pf=0.92 status=variable vmaxpu=1.5 vminpu=0.92 daily="COM1_4_SA" 
New "Load.BT_1011780_M1" bus1="1001011780.1.4" phases=1 conn=Wye model=2 kv=0.220000000 kw = 0.252636 pf=0.92 status=variable vmaxpu=1.5 vminpu=0.92 daily="RES1_26_SA"  
New "Load.BT_1011780_M2" bus1="1001011780.1.4" phases=1 conn=Wye model=3 kv=0.220000000 kw = 0.252636 pf=0.92 status=variable vmaxpu=1.5 vminpu=0.92 daily="RES1_26_SA" 
New "Load.BT_4157265_1_M1" bus1="1004157265.1.2.3.4" phases=3 conn=Delta model=2 kv=0.220000000 kw = 0.036397 pf=0.92 status=variable vmaxpu=1.5 vminpu=0.92 daily="RES1_2_SA"  
New "Load.BT_4157265_1_M2" bus1="1004157265.1.2.3.4" phases=3 conn=Delta model=3 kv=0.220000000 kw = 0.036397 pf=0.92 status=variable vmaxpu=1.5 vminpu=0.92 daily="RES1_2_SA" 
New "Load.BT_1007937_M1" bus1="1001007937.1.4" phases=1 conn=Wye model=2 kv=0.220000000 kw = 0.171091 pf=0.92 status=variable vmaxpu=1.5 vminpu=0.92 daily="RES1_11_SA"  
New "Load.BT_1007937_M2" bus1="1001007937.1.4" phases=1 conn=Wye model=3 kv=0.220000000 kw = 0.171091 pf=0.92 status=variable vmaxpu=1.5 vminpu=0.92 daily="RES1_11_SA" 
New "Load.BT_1031254_M1" bus1="1001031254.1.2.3.4" phases=3 conn=Delta model=2 kv=0.220000000 kw = 0.433532 pf=0.92 status=variable vmaxpu=1.5 vminpu=0.92 daily="RES1_2_SA"  
New "Load.BT_1031254_M2" bus1="1001031254.1.2.3.4" phases=3 conn=Delta model=3 kv=0.220000000 kw = 0.433532 pf=0.92 status=variable vmaxpu=1.5 vminpu=0.92 daily="RES1_2_SA" 
New "Load.BT_1007517_1_M1" bus1="1001007517.1.2.3.4" phases=3 conn=Delta model=2 kv=0.220000000 kw = 0.1452465 pf=0.92 status=variable vmaxpu=1.5 vminpu=0.92 daily="RES1_11_SA"  
New "Load.BT_1007517_1_M2" bus1="1001007517.1.2.3.4" phases=3 conn=Delta model=3 kv=0.220000000 kw = 0.1452465 pf=0.92 status=variable vmaxpu=1.5 vminpu=0.92 daily="RES1_11_SA" 
New "Load.BT_994777_M1" bus1="1000994777.1.2.4" phases=1 conn=Delta model=2 kv=0.220000000 kw = 0.2613785 pf=0.92 status=variable vmaxpu=1.5 vminpu=0.92 daily="RES1_1_SA"  
New "Load.BT_994777_M2" bus1="1000994777.1.2.4" phases=1 conn=Delta model=3 kv=0.220000000 kw = 0.2613785 pf=0.92 status=variable vmaxpu=1.5 vminpu=0.92 daily="RES1_1_SA" 
New "Load.BT_6723455_1_M1" bus1="1006723455.1.2.4" phases=1 conn=Delta model=2 kv=0.220000000 kw = 0.2704045 pf=0.92 status=variable vmaxpu=1.5 vminpu=0.92 daily="RES1_9_SA"  
New "Load.BT_6723455_1_M2" bus1="1006723455.1.2.4" phases=1 conn=Delta model=3 kv=0.220000000 kw = 0.2704045 pf=0.92 status=variable vmaxpu=1.5 vminpu=0.92 daily="RES1_9_SA" 
New "Load.BT_1238356_M1" bus1="1001238356.1.2.3.4" phases=3 conn=Delta model=2 kv=0.220000000 kw = 0.172435 pf=0.92 status=variable vmaxpu=1.5 vminpu=0.92 daily="RES1_18_SA"  
New "Load.BT_1238356_M2" bus1="1001238356.1.2.3.4" phases=3 conn=Delta model=3 kv=0.220000000 kw = 0.172435 pf=0.92 status=variable vmaxpu=1.5 vminpu=0.92 daily="RES1_18_SA" 

New "Load.BT_1009939_M1" bus1="1001009939.1.4" phases=1 conn=Wye model=2 kv=0.220000000 kw = 0.0938425 pf=0.92 status=variable vmaxpu=1.5 vminpu=0.92 daily="RES1_1_SA"  
New "Load.BT_1009939_M2" bus1="1001009939.1.4" phases=1 conn=Wye model=3 kv=0.220000000 kw = 0.0938425 pf=0.92 status=variable vmaxpu=1.5 vminpu=0.92 daily="RES1_1_SA" 
New "Load.BT_10237022_2_M1" bus1="1010237022.1.2.3.4" phases=3 conn=Delta model=2 kv=0.220000000 kw = 0.4555115 pf=0.92 status=variable vmaxpu=1.5 vminpu=0.92 daily="RES1_16_SA"  
New "Load.BT_10237022_2_M2" bus1="1010237022.1.2.3.4" phases=3 conn=Delta model=3 kv=0.220000000 kw = 0.4555115 pf=0.92 status=variable vmaxpu=1.5 vminpu=0.92 daily="RES1_16_SA" 
New "Load.BT_6571282_M1" bus1="1006571282.2.4" phases=1 conn=Wye model=2 kv=0.220000000 kw = 0.0 pf=0.92 status=variable vmaxpu=1.5 vminpu=0.92 daily="RES1_2_SA"  
New "Load.BT_6571282_M2" bus1="1006571282.2.4" phases=1 conn=Wye model=3 kv=0.220000000 kw = 0.0 pf=0.92 status=variable vmaxpu=1.5 vminpu=0.92 daily="RES1_2_SA" 
New "Load.BT_1020733_2_M1" bus1="1001020733.1.2.3.4" phases=3 conn=Delta model=2 kv=0.220000000 kw = 0.1134305 pf=0.92 status=variable vmaxpu=1.5 vminpu=0.92 daily="RES1_11_SA"  
New "Load.BT_1020733_2_M2" bus1="1001020733.1.2.3.4" phases=3 conn=Delta model=3 kv=0.220000000 kw = 0.1134305 pf=0.92 status=variable vmaxpu=1.5 vminpu=0.92 daily="RES1_11_SA" 
New "Load.BT_1053255_1_M1" bus1="1001053255.1.2.3.4" phases=3 conn=Delta model=2 kv=0.220000000 kw = 0.143986 pf=0.92 status=variable vmaxpu=1.5 vminpu=0.92 daily="RES1_2_SA"  
New "Load.BT_1053255_1_M2" bus1="1001053255.1.2.3.4" phases=3 conn=Delta model=3 kv=0.220000000 kw = 0.143986 pf=0.92 status=variable vmaxpu=1.5 vminpu=0.92 daily="RES1_2_SA" 


New "Load.BT_1016645_1_M1" bus1="1001016645.1.2.4" phases=1 conn=Delta model=2 kv=0.220000000 kw = 0.0024905 pf=0.92 status=variable vmaxpu=1.5 vminpu=0.92 daily="COM1_17_SA"  
New "Load.BT_1016645_1_M2" bus1="1001016645.1.2.4" phases=1 conn=Delta model=3 kv=0.220000000 kw = 0.0024905 pf=0.92 status=variable vmaxpu=1.5 vminpu=0.92 daily="COM1_17_SA" 
New "Load.BT_1007874_M1" bus1="1001007874.3.4" phases=1 conn=Wye model=2 kv=0.220000000 kw = 0.0929095 pf=0.92 status=variable vmaxpu=1.5 vminpu=0.92 daily="RES1_11_SA"  
New "Load.BT_1007874_M2" bus1="1001007874.3.4" phases=1 conn=Wye model=3 kv=0.220000000 kw = 0.0929095 pf=0.92 status=variable vmaxpu=1.5 vminpu=0.92 daily="RES1_11_SA" 
New "Load.BT_4892538_M1" bus1="1004892538.1.2.4" phases=1 conn=Delta model=2 kv=0.220000000 kw = 0.337938 pf=0.92 status=variable vmaxpu=1.5 vminpu=0.92 daily="RES1_2_SA"  
New "Load.BT_4892538_M2" bus1="1004892538.1.2.4" phases=1 conn=Delta model=3 kv=0.220000000 kw = 0.337938 pf=0.92 status=variable vmaxpu=1.5 vminpu=0.92 daily="RES1_2_SA" 
New "Load.BT_992614_M1" bus1="1000992614.3.4" phases=1 conn=Wye model=2 kv=0.220000000 kw = 0.1988385 pf=0.92 status=variable vmaxpu=1.5 vminpu=0.92 daily="RES1_1_SA"  
New "Load.BT_992614_M2" bus1="1000992614.3.4" phases=1 conn=Wye model=3 kv=0.220000000 kw = 0.1988385 pf=0.92 status=variable vmaxpu=1.5 vminpu=0.92 daily="RES1_1_SA" 
New "Load.BT_1036770_M1" bus1="1001036770.1.2.3.4" phases=3 conn=Delta model=2 kv=0.220000000 kw = 0.004543 pf=0.92 status=variable vmaxpu=1.5 vminpu=0.92 daily="RES1_19_SA"  
New "Load.BT_1036770_M2" bus1="1001036770.1.2.3.4" phases=3 conn=Delta model=3 kv=0.220000000 kw = 0.004543 pf=0.92 status=variable vmaxpu=1.5 vminpu=0.92 daily="RES1_19_SA" 
New "Load.BT_1041894_1_M1" bus1="1001041894.1.2.3.4" phases=3 conn=Delta model=2 kv=0.220000000 kw = 0.5329445 pf=0.92 status=variable vmaxpu=1.5 vminpu=0.92 daily="RES1_11_SA"  
New "Load.BT_1041894_1_M2" bus1="1001041894.1.2.3.4" phases=3 conn=Delta model=3 kv=0.220000000 kw = 0.5329445 pf=0.92 status=variable vmaxpu=1.5 vminpu=0.92 daily="RES1_11_SA" 
New "Load.BT_1031338_M1" bus1="1001031338.1.2.3.4" phases=3 conn=Delta model=2 kv=0.220000000 kw = 1.0914295 pf=0.92 status=variable vmaxpu=1.5 vminpu=0.92 daily="RES1_13_SA"  
New "Load.BT_1031338_M2" bus1="1001031338.1.2.3.4" phases=3 conn=Delta model=3 kv=0.220000000 kw = 1.0914295 pf=0.92 status=variable vmaxpu=1.5 vminpu=0.92 daily="RES1_13_SA" 
New "Load.BT_1013796_3_M1" bus1="1001013796.1.2.3.4" phases=3 conn=Delta model=2 kv=0.220000000 kw = 0.1816915 pf=0.92 status=variable vmaxpu=1.5 vminpu=0.92 daily="RES1_2_SA"  
New "Load.BT_1013796_3_M2" bus1="1001013796.1.2.3.4" phases=3 conn=Delta model=3 kv=0.220000000 kw = 0.1816915 pf=0.92 status=variable vmaxpu=1.5 vminpu=0.92 daily="RES1_2_SA" 
New "Load.BT_1020516_1_M1" bus1="1001020516.1.2.3.4" phases=3 conn=Delta model=2 kv=0.220000000 kw = 1.120842 pf=0.92 status=variable vmaxpu=1.5 vminpu=0.92 daily="RES1_1_SA"  
New "Load.BT_1020516_1_M2" bus1="1001020516.1.2.3.4" phases=3 conn=Delta model=3 kv=0.220000000 kw = 1.120842 pf=0.92 status=variable vmaxpu=1.5 vminpu=0.92 daily="RES1_1_SA" 
New "Load.BT_10406746_M1" bus1="1010406746.1.2.4" phases=1 conn=Delta model=2 kv=0.220000000 kw = 0.2139805 pf=0.92 status=variable vmaxpu=1.5 vminpu=0.92 daily="RES1_6_SA"  
New "Load.BT_10406746_M2" bus1="1010406746.1.2.4" phases=1 conn=Delta model=3 kv=0.220000000 kw = 0.2139805 pf=0.92 status=variable vmaxpu=1.5 vminpu=0.92 daily="RES1_6_SA" 
New "Load.BT_1015350_1_M1" bus1="1001015350.3.4" phases=1 conn=Wye model=2 kv=0.220000000 kw = 0.153188 pf=0.92 status=variable vmaxpu=1.5 vminpu=0.92 daily="RES1_26_SA"  
New "Load.BT_1015350_1_M2" bus1="1001015350.3.4" phases=1 conn=Wye model=3 kv=0.220000000 kw = 0.153188 pf=0.92 status=variable vmaxpu=1.5 vminpu=0.92 daily="RES1_26_SA" 
New "Load.BT_1013796_4_M1" bus1="1001013796.1.2.3.4" phases=3 conn=Delta model=2 kv=0.220000000 kw = 0.0854655 pf=0.92 status=variable vmaxpu=1.5 vminpu=0.92 daily="RES1_2_SA"  
New "Load.BT_1013796_4_M2" bus1="1001013796.1.2.3.4" phases=3 conn=Delta model=3 kv=0.220000000 kw = 0.0854655 pf=0.92 status=variable vmaxpu=1.5 vminpu=0.92 daily="RES1_2_SA" 
New "Load.BT_1024660_1_M1" bus1="1001024660.1.2.3.4" phases=3 conn=Delta model=2 kv=0.220000000 kw = 0.011848 pf=0.92 status=variable vmaxpu=1.5 vminpu=0.92 daily="RES1_2_SA"  
New "Load.BT_1024660_1_M2" bus1="1001024660.1.2.3.4" phases=3 conn=Delta model=3 kv=0.220000000 kw = 0.011848 pf=0.92 status=variable vmaxpu=1.5 vminpu=0.92 daily="RES1_2_SA" 
New "Load.BT_1204112_1_M1" bus1="1001204112.1.2.3.4" phases=3 conn=Delta model=2 kv=0.220000000 kw = 0.5202595 pf=0.92 status=variable vmaxpu=1.5 vminpu=0.92 daily="RES1_1_SA"  
New "Load.BT_1204112_1_M2" bus1="1001204112.1.2.3.4" phases=3 conn=Delta model=3 kv=0.220000000 kw = 0.5202595 pf=0.92 status=variable vmaxpu=1.5 vminpu=0.92 daily="RES1_1_SA" 
New "Load.BT_1034684_M1" bus1="1001034684.1.2.3.4" phases=3 conn=Delta model=2 kv=0.220000000 kw = 0.466726 pf=0.92 status=variable vmaxpu=1.5 vminpu=0.92 daily="RES1_19_SA"  
New "Load.BT_1034684_M2" bus1="1001034684.1.2.3.4" phases=3 conn=Delta model=3 kv=0.220000000 kw = 0.466726 pf=0.92 status=variable vmaxpu=1.5 vminpu=0.92 daily="RES1_19_SA" 
New "Load.BT_4928714_1_M1" bus1="1004928714.1.2.3.4" phases=3 conn=Delta model=2 kv=0.220000000 kw = 0.2061445 pf=0.92 status=variable vmaxpu=1.5 vminpu=0.92 daily="COM1_21_SA"  
New "Load.BT_4928714_1_M2" bus1="1004928714.1.2.3.4" phases=3 conn=Delta model=3 kv=0.220000000 kw = 0.2061445 pf=0.92 status=variable vmaxpu=1.5 vminpu=0.92 daily="COM1_21_SA" 
New "Load.BT_1033844_M1" bus1="1001033844.1.2.3.4" phases=3 conn=Delta model=2 kv=0.220000000 kw = 1.9850645 pf=0.92 status=variable vmaxpu=1.5 vminpu=0.92 daily="COM1_21_SA"  
New "Load.BT_1033844_M2" bus1="1001033844.1.2.3.4" phases=3 conn=Delta model=3 kv=0.220000000 kw = 1.9850645 pf=0.92 status=variable vmaxpu=1.5 vminpu=0.92 daily="COM1_21_SA" 
New "Load.BT_990913_M1" bus1="1000990913.3.4" phases=1 conn=Wye model=2 kv=0.220000000 kw = 0.1670125 pf=0.92 status=variable vmaxpu=1.5 vminpu=0.92 daily="RES1_1_SA"  
New "Load.BT_990913_M2" bus1="1000990913.3.4" phases=1 conn=Wye model=3 kv=0.220000000 kw = 0.1670125 pf=0.92 status=variable vmaxpu=1.5 vminpu=0.92 daily="RES1_1_SA" 
New "Load.BT_1025017_2_M1" bus1="1001025017.1.2.3.4" phases=3 conn=Delta model=2 kv=0.220000000 kw = 0.213282 pf=0.92 status=variable vmaxpu=1.5 vminpu=0.92 daily="RES1_2_SA"  
New "Load.BT_1025017_2_M2" bus1="1001025017.1.2.3.4" phases=3 conn=Delta model=3 kv=0.220000000 kw = 0.213282 pf=0.92 status=variable vmaxpu=1.5 vminpu=0.92 daily="RES1_2_SA" 
New "Load.BT_1016722_1_M1" bus1="1001016722.1.2.3.4" phases=3 conn=Delta model=2 kv=0.220000000 kw = 0.112084 pf=0.92 status=variable vmaxpu=1.5 vminpu=0.92 daily="RES1_12_SA"  
New "Load.BT_1016722_1_M2" bus1="1001016722.1.2.3.4" phases=3 conn=Delta model=3 kv=0.220000000 kw = 0.112084 pf=0.92 status=variable vmaxpu=1.5 vminpu=0.92 daily="RES1_12_SA" 
New "Load.BT_4555663_M1" bus1="1004555663.1.2.3.4" phases=3 conn=Delta model=2 kv=0.220000000 kw = 0.2767295 pf=0.92 status=variable vmaxpu=1.5 vminpu=0.92 daily="RES1_6_SA"  
New "Load.BT_4555663_M2" bus1="1004555663.1.2.3.4" phases=3 conn=Delta model=3 kv=0.220000000 kw = 0.2767295 pf=0.92 status=variable vmaxpu=1.5 vminpu=0.92 daily="RES1_6_SA" 

New "Load.BT_1024940_2_M1" bus1="1001024940.1.2.3.4" phases=3 conn=Delta model=2 kv=0.220000000 kw = 0.0170225 pf=0.92 status=variable vmaxpu=1.5 vminpu=0.92 daily="RES1_2_SA"  
New "Load.BT_1024940_2_M2" bus1="1001024940.1.2.3.4" phases=3 conn=Delta model=3 kv=0.220000000 kw = 0.0170225 pf=0.92 status=variable vmaxpu=1.5 vminpu=0.92 daily="RES1_2_SA" 
New "Load.BT_3956057_1_M1" bus1="1003956057.1.2.4" phases=1 conn=Delta model=2 kv=0.220000000 kw = 0.13058 pf=0.92 status=variable vmaxpu=1.5 vminpu=0.92 daily="RES1_2_SA"  
New "Load.BT_3956057_1_M2" bus1="1003956057.1.2.4" phases=1 conn=Delta model=3 kv=0.220000000 kw = 0.13058 pf=0.92 status=variable vmaxpu=1.5 vminpu=0.92 daily="RES1_2_SA" 
New "Load.BT_1022945_1_M1" bus1="1001022945.1.2.3.4" phases=3 conn=Delta model=2 kv=0.220000000 kw = 0.265291 pf=0.92 status=variable vmaxpu=1.5 vminpu=0.92 daily="RES1_16_SA"  
New "Load.BT_1022945_1_M2" bus1="1001022945.1.2.3.4" phases=3 conn=Delta model=3 kv=0.220000000 kw = 0.265291 pf=0.92 status=variable vmaxpu=1.5 vminpu=0.92 daily="RES1_16_SA" 
New "Load.BT_994385_M1" bus1="1000994385.1.4" phases=1 conn=Wye model=2 kv=0.220000000 kw = 0.235515 pf=0.92 status=variable vmaxpu=1.5 vminpu=0.92 daily="RES1_1_SA"  
New "Load.BT_994385_M2" bus1="1000994385.1.4" phases=1 conn=Wye model=3 kv=0.220000000 kw = 0.235515 pf=0.92 status=variable vmaxpu=1.5 vminpu=0.92 daily="RES1_1_SA" 
New "Load.BT_1012522_1_M1" bus1="1001012522.1.2.3.4" phases=3 conn=Delta model=2 kv=0.220000000 kw = 0.138984 pf=0.92 status=variable vmaxpu=1.5 vminpu=0.92 daily="RES1_11_SA"  
New "Load.BT_1012522_1_M2" bus1="1001012522.1.2.3.4" phases=3 conn=Delta model=3 kv=0.220000000 kw = 0.138984 pf=0.92 status=variable vmaxpu=1.5 vminpu=0.92 daily="RES1_11_SA" 
New "Load.BT_1014937_M1" bus1="1001014937.2.4" phases=1 conn=Wye model=2 kv=0.220000000 kw = 0.1926645 pf=0.92 status=variable vmaxpu=1.5 vminpu=0.92 daily="RES1_3_SA"  
New "Load.BT_1014937_M2" bus1="1001014937.2.4" phases=1 conn=Wye model=3 kv=0.220000000 kw = 0.1926645 pf=0.92 status=variable vmaxpu=1.5 vminpu=0.92 daily="RES1_3_SA" 
New "Load.BT_4915512_M1" bus1="1004915512.1.2.4" phases=1 conn=Delta model=2 kv=0.220000000 kw = 0.159641 pf=0.92 status=variable vmaxpu=1.5 vminpu=0.92 daily="RES1_7_SA"  
New "Load.BT_4915512_M2" bus1="1004915512.1.2.4" phases=1 conn=Delta model=3 kv=0.220000000 kw = 0.159641 pf=0.92 status=variable vmaxpu=1.5 vminpu=0.92 daily="RES1_7_SA" 
New "Load.BT_992740_1_M1" bus1="1000992740.3.1.4" phases=1 conn=Delta model=2 kv=0.220000000 kw = 0.0973465 pf=0.92 status=variable vmaxpu=1.5 vminpu=0.92 daily="RES1_1_SA"  
New "Load.BT_992740_1_M2" bus1="1000992740.3.1.4" phases=1 conn=Delta model=3 kv=0.220000000 kw = 0.0973465 pf=0.92 status=variable vmaxpu=1.5 vminpu=0.92 daily="RES1_1_SA" 
New "Load.BT_3729285_1_M1" bus1="1003729285.3.4" phases=1 conn=Wye model=2 kv=0.220000000 kw = 0.167222 pf=0.92 status=variable vmaxpu=1.5 vminpu=0.92 daily="RES1_1_SA"  
New "Load.BT_3729285_1_M2" bus1="1003729285.3.4" phases=1 conn=Wye model=3 kv=0.220000000 kw = 0.167222 pf=0.92 status=variable vmaxpu=1.5 vminpu=0.92 daily="RES1_1_SA" 
New "Load.BT_1011528_M1" bus1="1001011528.2.4" phases=1 conn=Wye model=2 kv=0.220000000 kw = 0.447617 pf=0.92 status=variable vmaxpu=1.5 vminpu=0.92 daily="RES1_26_SA"  
New "Load.BT_1011528_M2" bus1="1001011528.2.4" phases=1 conn=Wye model=3 kv=0.220000000 kw = 0.447617 pf=0.92 status=variable vmaxpu=1.5 vminpu=0.92 daily="RES1_26_SA" 
New "Load.BT_1033809_2_M1" bus1="1001033809.1.2.3.4" phases=3 conn=Delta model=2 kv=0.220000000 kw = 0.254574 pf=0.92 status=variable vmaxpu=1.5 vminpu=0.92 daily="RES1_2_SA"  
New "Load.BT_1033809_2_M2" bus1="1001033809.1.2.3.4" phases=3 conn=Delta model=3 kv=0.220000000 kw = 0.254574 pf=0.92 status=variable vmaxpu=1.5 vminpu=0.92 daily="RES1_2_SA" 
New "Load.BT_5093725_M1" bus1="1005093725.2.3.4" phases=1 conn=Delta model=2 kv=0.220000000 kw = 0.7008955 pf=0.92 status=variable vmaxpu=1.5 vminpu=0.92 daily="RES1_2_SA"  
New "Load.BT_5093725_M2" bus1="1005093725.2.3.4" phases=1 conn=Delta model=3 kv=0.220000000 kw = 0.7008955 pf=0.92 status=variable vmaxpu=1.5 vminpu=0.92 daily="RES1_2_SA" 
New "Load.BT_10215124_1_M1" bus1="1010215124.1.2.3.4" phases=3 conn=Delta model=2 kv=0.220000000 kw = 0.052251 pf=0.92 status=variable vmaxpu=1.5 vminpu=0.92 daily="RES1_17_SA"  
New "Load.BT_10215124_1_M2" bus1="1010215124.1.2.3.4" phases=3 conn=Delta model=3 kv=0.220000000 kw = 0.052251 pf=0.92 status=variable vmaxpu=1.5 vminpu=0.92 daily="RES1_17_SA" 
New "Load.BT_1219386_M1" bus1="1001219386.3.1.4" phases=1 conn=Delta model=2 kv=0.220000000 kw = 0.2432635 pf=0.92 status=variable vmaxpu=1.5 vminpu=0.92 daily="RES1_7_SA"  
New "Load.BT_1219386_M2" bus1="1001219386.3.1.4" phases=1 conn=Delta model=3 kv=0.220000000 kw = 0.2432635 pf=0.92 status=variable vmaxpu=1.5 vminpu=0.92 daily="RES1_7_SA" 
New "Load.BT_1053255_2_M1" bus1="1001053255.1.2.3.4" phases=3 conn=Delta model=2 kv=0.220000000 kw = 0.0462165 pf=0.92 status=variable vmaxpu=1.5 vminpu=0.92 daily="RES1_2_SA"  
New "Load.BT_1053255_2_M2" bus1="1001053255.1.2.3.4" phases=3 conn=Delta model=3 kv=0.220000000 kw = 0.0462165 pf=0.92 status=variable vmaxpu=1.5 vminpu=0.92 daily="RES1_2_SA" 
New "Load.BT_4593631_1_M1" bus1="1004593631.1.2.4" phases=1 conn=Delta model=2 kv=0.220000000 kw = 0.3611835 pf=0.92 status=variable vmaxpu=1.5 vminpu=0.92 daily="RES1_16_SA"  
New "Load.BT_4593631_1_M2" bus1="1004593631.1.2.4" phases=1 conn=Delta model=3 kv=0.220000000 kw = 0.3611835 pf=0.92 status=variable vmaxpu=1.5 vminpu=0.92 daily="RES1_16_SA" 
New "Load.BT_1013796_5_M1" bus1="1001013796.1.2.3.4" phases=3 conn=Delta model=2 kv=0.220000000 kw = 0.2621155 pf=0.92 status=variable vmaxpu=1.5 vminpu=0.92 daily="RES1_2_SA"  
New "Load.BT_1013796_5_M2" bus1="1001013796.1.2.3.4" phases=3 conn=Delta model=3 kv=0.220000000 kw = 0.2621155 pf=0.92 status=variable vmaxpu=1.5 vminpu=0.92 daily="RES1_2_SA" 
New "Load.BT_994301_1_M1" bus1="1000994301.1.2.4" phases=1 conn=Delta model=2 kv=0.220000000 kw = 0.2327005 pf=0.92 status=variable vmaxpu=1.5 vminpu=0.92 daily="RES1_2_SA"  
New "Load.BT_994301_1_M2" bus1="1000994301.1.2.4" phases=1 conn=Delta model=3 kv=0.220000000 kw = 0.2327005 pf=0.92 status=variable vmaxpu=1.5 vminpu=0.92 daily="RES1_2_SA" 
New "Load.BT_1042216_2_M1" bus1="1001042216.1.2.3.4" phases=3 conn=Delta model=2 kv=0.220000000 kw = 0.212913 pf=0.92 status=variable vmaxpu=1.5 vminpu=0.92 daily="RES1_19_SA"  
New "Load.BT_1042216_2_M2" bus1="1001042216.1.2.3.4" phases=3 conn=Delta model=3 kv=0.220000000 kw = 0.212913 pf=0.92 status=variable vmaxpu=1.5 vminpu=0.92 daily="RES1_19_SA" 

New "Load.BT_6474843_2_M1" bus1="1006474843.1.2.3.4" phases=3 conn=Delta model=2 kv=0.220000000 kw = 0.1441435 pf=0.92 status=variable vmaxpu=1.5 vminpu=0.92 daily="RES1_1_SA"  
New "Load.BT_6474843_2_M2" bus1="1006474843.1.2.3.4" phases=3 conn=Delta model=3 kv=0.220000000 kw = 0.1441435 pf=0.92 status=variable vmaxpu=1.5 vminpu=0.92 daily="RES1_1_SA" 
New "Load.BT_1036616_1_M1" bus1="1001036616.1.2.3.4" phases=3 conn=Delta model=2 kv=0.220000000 kw = 0.200411 pf=0.92 status=variable vmaxpu=1.5 vminpu=0.92 daily="RES1_19_SA"  
New "Load.BT_1036616_1_M2" bus1="1001036616.1.2.3.4" phases=3 conn=Delta model=3 kv=0.220000000 kw = 0.200411 pf=0.92 status=variable vmaxpu=1.5 vminpu=0.92 daily="RES1_19_SA" 

New "Load.BT_1008028_1_M1" bus1="1001008028.3.4" phases=1 conn=Wye model=2 kv=0.220000000 kw = 0.2131845 pf=0.92 status=variable vmaxpu=1.5 vminpu=0.92 daily="RES1_11_SA"  
New "Load.BT_1008028_1_M2" bus1="1001008028.3.4" phases=1 conn=Wye model=3 kv=0.220000000 kw = 0.2131845 pf=0.92 status=variable vmaxpu=1.5 vminpu=0.92 daily="RES1_11_SA" 
New "Load.BT_3796058_M1" bus1="1003796058.1.2.3.4" phases=3 conn=Delta model=2 kv=0.220000000 kw = 0.1804175 pf=0.92 status=variable vmaxpu=1.5 vminpu=0.92 daily="RES1_7_SA"  
New "Load.BT_3796058_M2" bus1="1003796058.1.2.3.4" phases=3 conn=Delta model=3 kv=0.220000000 kw = 0.1804175 pf=0.92 status=variable vmaxpu=1.5 vminpu=0.92 daily="RES1_7_SA" 
New "Load.BT_1007916_M1" bus1="1001007916.1.2.4" phases=1 conn=Delta model=2 kv=0.220000000 kw = 0.1974385 pf=0.92 status=variable vmaxpu=1.5 vminpu=0.92 daily="RES1_11_SA"  
New "Load.BT_1007916_M2" bus1="1001007916.1.2.4" phases=1 conn=Delta model=3 kv=0.220000000 kw = 0.1974385 pf=0.92 status=variable vmaxpu=1.5 vminpu=0.92 daily="RES1_11_SA" 
New "Load.BT_1023988_1_M1" bus1="1001023988.1.2.3.4" phases=3 conn=Delta model=2 kv=0.220000000 kw = 0.0353395 pf=0.92 status=variable vmaxpu=1.5 vminpu=0.92 daily="RES1_24_SA"  
New "Load.BT_1023988_1_M2" bus1="1001023988.1.2.3.4" phases=3 conn=Delta model=3 kv=0.220000000 kw = 0.0353395 pf=0.92 status=variable vmaxpu=1.5 vminpu=0.92 daily="RES1_24_SA" 
New "Load.BT_992607_M1" bus1="1000992607.1.2.4" phases=1 conn=Delta model=2 kv=0.220000000 kw = 0.202722 pf=0.92 status=variable vmaxpu=1.5 vminpu=0.92 daily="RES1_1_SA"  
New "Load.BT_992607_M2" bus1="1000992607.1.2.4" phases=1 conn=Delta model=3 kv=0.220000000 kw = 0.202722 pf=0.92 status=variable vmaxpu=1.5 vminpu=0.92 daily="RES1_1_SA" 
New "Load.BT_1018367_M1" bus1="1001018367.2.3.4" phases=1 conn=Delta model=2 kv=0.220000000 kw = 0.566763 pf=0.92 status=variable vmaxpu=1.5 vminpu=0.92 daily="RES1_4_SA"  
New "Load.BT_1018367_M2" bus1="1001018367.2.3.4" phases=1 conn=Delta model=3 kv=0.220000000 kw = 0.566763 pf=0.92 status=variable vmaxpu=1.5 vminpu=0.92 daily="RES1_4_SA" 
New "Load.BT_998417_M1" bus1="1000998417.2.4" phases=1 conn=Wye model=2 kv=0.120000000 kw = 0.078375 pf=0.92 status=variable vmaxpu=1.5 vminpu=0.92 daily="RES1_10_SA"  
New "Load.BT_998417_M2" bus1="1000998417.2.4" phases=1 conn=Wye model=3 kv=0.120000000 kw = 0.078375 pf=0.92 status=variable vmaxpu=1.5 vminpu=0.92 daily="RES1_10_SA" 
New "Load.BT_1020502_M1" bus1="1001020502.2.4" phases=1 conn=Wye model=2 kv=0.220000000 kw = 0.0720635 pf=0.92 status=variable vmaxpu=1.5 vminpu=0.92 daily="RES1_7_SA"  
New "Load.BT_1020502_M2" bus1="1001020502.2.4" phases=1 conn=Wye model=3 kv=0.220000000 kw = 0.0720635 pf=0.92 status=variable vmaxpu=1.5 vminpu=0.92 daily="RES1_7_SA" 

New "Load.BT_1033809_3_M1" bus1="1001033809.1.2.3.4" phases=3 conn=Delta model=2 kv=0.220000000 kw = 0.270597 pf=0.92 status=variable vmaxpu=1.5 vminpu=0.92 daily="RES1_2_SA"  
New "Load.BT_1033809_3_M2" bus1="1001033809.1.2.3.4" phases=3 conn=Delta model=3 kv=0.220000000 kw = 0.270597 pf=0.92 status=variable vmaxpu=1.5 vminpu=0.92 daily="RES1_2_SA" 
New "Load.BT_1017506_M1" bus1="1001017506.1.2.3.4" phases=3 conn=Delta model=2 kv=0.220000000 kw = 0.594305 pf=0.92 status=variable vmaxpu=1.5 vminpu=0.92 daily="COM1_11_SA"  
New "Load.BT_1017506_M2" bus1="1001017506.1.2.3.4" phases=3 conn=Delta model=3 kv=0.220000000 kw = 0.594305 pf=0.92 status=variable vmaxpu=1.5 vminpu=0.92 daily="COM1_11_SA" 
New "Load.BT_6474843_3_M1" bus1="1006474843.1.2.3.4" phases=3 conn=Delta model=2 kv=0.220000000 kw = 0.129682 pf=0.92 status=variable vmaxpu=1.5 vminpu=0.92 daily="RES1_1_SA"  
New "Load.BT_6474843_3_M2" bus1="1006474843.1.2.3.4" phases=3 conn=Delta model=3 kv=0.220000000 kw = 0.129682 pf=0.92 status=variable vmaxpu=1.5 vminpu=0.92 daily="RES1_1_SA" 
New "Load.BT_1021748_M1" bus1="1001021748.2.4" phases=1 conn=Wye model=2 kv=0.220000000 kw = 0.208184 pf=0.92 status=variable vmaxpu=1.5 vminpu=0.92 daily="RES1_7_SA"  
New "Load.BT_1021748_M2" bus1="1001021748.2.4" phases=1 conn=Wye model=3 kv=0.220000000 kw = 0.208184 pf=0.92 status=variable vmaxpu=1.5 vminpu=0.92 daily="RES1_7_SA" 
New "Load.BT_4138897_M1" bus1="1004138897.1.2.4" phases=1 conn=Delta model=2 kv=0.220000000 kw = 0.6408565 pf=0.92 status=variable vmaxpu=1.5 vminpu=0.92 daily="RES1_3_SA"  
New "Load.BT_4138897_M2" bus1="1004138897.1.2.4" phases=1 conn=Delta model=3 kv=0.220000000 kw = 0.6408565 pf=0.92 status=variable vmaxpu=1.5 vminpu=0.92 daily="RES1_3_SA" 
New "Load.BT_10215124_2_M1" bus1="1010215124.1.2.3.4" phases=3 conn=Delta model=2 kv=0.220000000 kw = 0.0702515 pf=0.92 status=variable vmaxpu=1.5 vminpu=0.92 daily="RES1_17_SA"  
New "Load.BT_10215124_2_M2" bus1="1010215124.1.2.3.4" phases=3 conn=Delta model=3 kv=0.220000000 kw = 0.0702515 pf=0.92 status=variable vmaxpu=1.5 vminpu=0.92 daily="RES1_17_SA" 
New "Load.BT_1018962_1_M1" bus1="1001018962.3.4" phases=1 conn=Wye model=2 kv=0.220000000 kw = 0.1324335 pf=0.92 status=variable vmaxpu=1.5 vminpu=0.92 daily="RES1_4_SA"  
New "Load.BT_1018962_1_M2" bus1="1001018962.3.4" phases=1 conn=Wye model=3 kv=0.220000000 kw = 0.1324335 pf=0.92 status=variable vmaxpu=1.5 vminpu=0.92 daily="RES1_4_SA" 
...